10171019
  -OEChem-03042015432D

189196  0     1  0  0  0  0  0999 V2000
   12.7824    2.4556    0.0000 O   0  0  0  0  0  0  0  0  0  0  0  0
    9.6728    4.9349    0.0000 O   0  0  0  0  0  0  0  0  0  0  0  0
   12.7824   -1.5606    0.0000 O   0  0  0  0  0  0  0  0  0  0  0  0
    5.8266    3.9946    0.0000 O   0  0  0  0  0  0  0  0  0  0  0  0
    9.6505   -4.0398    0.0000 O   0  0  0  0  0  0  0  0  0  0  0  0
    4.0348    0.4718    0.0000 O   0  0  0  0  0  0  0  0  0  0  0  0
    5.7597   -3.1219    0.0000 O   0  0  0  0  0  0  0  0  0  0  0  0
   10.3081    3.3160    0.0000 O   0  0  0  0  0  0  0  0  0  0  0  0
   11.9128    0.9496    0.0000 O   0  0  0  0  0  0  0  0  0  0  0  0
    7.4884    3.4820    0.0000 O   0  0  0  0  0  0  0  0  0  0  0  0
   12.1551   -3.1546    0.0000 O   0  0  0  0  0  0  0  0  0  0  0  0
    3.9271    2.1128    0.0000 O   0  0  0  0  0  0  0  0  0  0  0  0
    8.0134   -4.5282    0.0000 O   0  0  0  0  0  0  0  0  0  0  0  0
    4.3405   -2.1671    0.0000 O   0  0  0  0  0  0  0  0  0  0  0  0
   10.6106    5.2992    0.0000 O   0  0  0  0  0  0  0  0  0  0  0  0
   13.6519    1.9496    0.0000 O   0  0  0  0  0  0  0  0  0  0  0  0
    6.1265    4.9550    0.0000 O   0  0  0  0  0  0  0  0  0  0  0  0
   11.8527   -1.1714    0.0000 O   0  0  0  0  0  0  0  0  0  0  0  0
    5.0601    0.4573    0.0000 O   0  0  0  0  0  0  0  0  0  0  0  0
    9.3753   -3.0552    0.0000 O   0  0  0  0  0  0  0  0  0  0  0  0
    6.3412   -2.3135    0.0000 O   0  0  0  0  0  0  0  0  0  0  0  0
   12.3265    5.0385    0.0000 O   0  0  0  0  0  0  0  0  0  0  0  0
   14.5179    0.4455    0.0000 O   0  0  0  0  0  0  0  0  0  0  0  0
    7.4002    6.1340    0.0000 O   0  0  0  0  0  0  0  0  0  0  0  0
   10.1368   -1.4321    0.0000 O   0  0  0  0  0  0  0  0  0  0  0  0
    6.4929    1.4367    0.0000 O   0  0  0  0  0  0  0  0  0  0  0  0
    8.1017   -1.8762    0.0000 O   0  0  0  0  0  0  0  0  0  0  0  0
    6.4689   -0.5826    0.0000 O   0  0  0  0  0  0  0  0  0  0  0  0
    9.9444    1.6762    0.0000 O   0  0  0  0  0  0  0  0  0  0  0  0
   10.1808   -0.0545    0.0000 O   0  0  0  0  0  0  0  0  0  0  0  0
    8.8527    2.0168    0.0000 O   0  0  0  0  0  0  0  0  0  0  0  0
   12.4501   -5.1348    0.0000 O   0  0  0  0  0  0  0  0  0  0  0  0
    2.8022    3.7690    0.0000 O   0  0  0  0  0  0  0  0  0  0  0  0
    6.6491   -5.9934    0.0000 O   0  0  0  0  0  0  0  0  0  0  0  0
    2.3443   -2.0139    0.0000 O   0  0  0  0  0  0  0  0  0  0  0  0
   12.0278    3.0568    0.0000 C   0  0  1  0  0  0  0  0  0  0  0  0
    8.7633    4.6649    0.0000 C   0  0  1  0  0  0  0  0  0  0  0  0
   12.7824   -0.5565    0.0000 C   0  0  1  0  0  0  0  0  0  0  0  0
    5.3640    3.0925    0.0000 C   0  0  1  0  0  0  0  0  0  0  0  0
   10.4355   -3.4138    0.0000 C   0  0  1  0  0  0  0  0  0  0  0  0
    4.4704   -0.4328    0.0000 C   0  0  1  0  0  0  0  0  0  0  0  0
    6.7386   -3.3453    0.0000 C   0  0  1  0  0  0  0  0  0  0  0  0
   12.1775    4.0496    0.0000 C   0  0  1  0  0  0  0  0  0  0  0  0
   13.6519   -0.0545    0.0000 C   0  0  1  0  0  0  0  0  0  0  0  0
    8.0803    5.4009    0.0000 C   0  0  1  0  0  0  0  0  0  0  0  0
   10.2858   -2.4210    0.0000 C   0  0  1  0  0  0  0  0  0  0  0  0
    5.9296    2.2629    0.0000 C   0  0  1  0  0  0  0  0  0  0  0  0
    7.4215   -2.6093    0.0000 C   0  0  1  0  0  0  0  0  0  0  0  0
    5.4717   -0.5079    0.0000 C   0  0  1  0  0  0  0  0  0  0  0  0
   11.3924    4.6757    0.0000 C   0  0  2  0  0  0  0  0  0  0  0  0
   13.6519    0.9496    0.0000 C   0  0  2  0  0  0  0  0  0  0  0  0
    7.1014    5.1775    0.0000 C   0  0  2  0  0  0  0  0  0  0  0  0
   11.0708   -1.7949    0.0000 C   0  0  2  0  0  0  0  0  0  0  0  0
    5.4940    1.3583    0.0000 C   0  0  2  0  0  0  0  0  0  0  0  0
    8.4004   -2.8327    0.0000 C   0  0  2  0  0  0  0  0  0  0  0  0
    5.9073   -1.4125    0.0000 C   0  0  2  0  0  0  0  0  0  0  0  0
   10.4578    4.3088    0.0000 C   0  0  1  0  0  0  0  0  0  0  0  0
   12.7824    1.4516    0.0000 C   0  0  1  0  0  0  0  0  0  0  0  0
    6.8055    4.2180    0.0000 C   0  0  1  0  0  0  0  0  0  0  0  0
   12.0055   -2.1618    0.0000 C   0  0  1  0  0  0  0  0  0  0  0  0
    4.4927    1.2833    0.0000 C   0  0  1  0  0  0  0  0  0  0  0  0
    8.6963   -3.7921    0.0000 C   0  0  1  0  0  0  0  0  0  0  0  0
    5.3417   -2.2421    0.0000 C   0  0  1  0  0  0  0  0  0  0  0  0
   11.0932    2.6900    0.0000 C   0  0  1  0  0  0  0  0  0  0  0  0
   11.9128   -0.0545    0.0000 C   0  0  1  0  0  0  0  0  0  0  0  0
    8.4673    3.7054    0.0000 C   0  0  1  0  0  0  0  0  0  0  0  0
   11.3701   -3.7806    0.0000 C   0  0  1  0  0  0  0  0  0  0  0  0
    4.3628    3.0175    0.0000 C   0  0  1  0  0  0  0  0  0  0  0  0
    7.0345   -4.3047    0.0000 C   0  0  1  0  0  0  0  0  0  0  0  0
    3.9048   -1.2624    0.0000 C   0  0  1  0  0  0  0  0  0  0  0  0
   10.9441    1.7012    0.0000 C   0  0  0  0  0  0  0  0  0  0  0  0
   11.0468   -0.5545    0.0000 C   0  0  0  0  0  0  0  0  0  0  0  0
    9.1475    2.9724    0.0000 C   0  0  0  0  0  0  0  0  0  0  0  0
   11.5192   -4.7694    0.0000 C   0  0  0  0  0  0  0  0  0  0  0  0
    3.7995    3.8437    0.0000 C   0  0  0  0  0  0  0  0  0  0  0  0
    6.3543   -5.0378    0.0000 C   0  0  0  0  0  0  0  0  0  0  0  0
    2.9076   -1.1877    0.0000 C   0  0  0  0  0  0  0  0  0  0  0  0
   10.7597    6.2880    0.0000 C   0  0  0  0  0  0  0  0  0  0  0  0
   14.5179    2.4496    0.0000 C   0  0  0  0  0  0  0  0  0  0  0  0
    5.4463    5.6880    0.0000 C   0  0  0  0  0  0  0  0  0  0  0  0
   12.4523   -0.1902    0.0000 C   0  0  0  0  0  0  0  0  0  0  0  0
    6.0227    0.1865    0.0000 C   0  0  0  0  0  0  0  0  0  0  0  0
    9.4251   -2.0564    0.0000 C   0  0  0  0  0  0  0  0  0  0  0  0
    7.1531   -1.7296    0.0000 C   0  0  0  0  0  0  0  0  0  0  0  0
    9.4662    0.7980    0.0000 C   0  0  0  0  0  0  0  0  0  0  0  0
    9.3147   -0.5545    0.0000 C   0  0  0  0  0  0  0  0  0  0  0  0
    7.8778    1.7943    0.0000 C   0  0  0  0  0  0  0  0  0  0  0  0
   12.5991   -6.1236    0.0000 C   0  0  0  0  0  0  0  0  0  0  0  0
    2.2389    4.5952    0.0000 C   0  0  0  0  0  0  0  0  0  0  0  0
    5.9689   -6.7264    0.0000 C   0  0  0  0  0  0  0  0  0  0  0  0
    1.3471   -1.9392    0.0000 C   0  0  0  0  0  0  0  0  0  0  0  0
   11.9013    2.2163    0.0000 H   0  0  0  0  0  0  0  0  0  0  0  0
    9.3611    4.0606    0.0000 H   0  0  0  0  0  0  0  0  0  0  0  0
   13.5185   -0.9815    0.0000 H   0  0  0  0  0  0  0  0  0  0  0  0
    4.8940    3.8008    0.0000 H   0  0  0  0  0  0  0  0  0  0  0  0
    9.6442   -3.1033    0.0000 H   0  0  0  0  0  0  0  0  0  0  0  0
    3.6228   -0.3693    0.0000 H   0  0  0  0  0  0  0  0  0  0  0  0
    6.4880   -2.5330    0.0000 H   0  0  0  0  0  0  0  0  0  0  0  0
   12.6622    3.6631    0.0000 H   0  0  0  0  0  0  0  0  0  0  0  0
   13.6519   -0.6745    0.0000 H   0  0  0  0  0  0  0  0  0  0  0  0
    8.6848    5.5389    0.0000 H   0  0  0  0  0  0  0  0  0  0  0  0
    9.8011   -2.8075    0.0000 H   0  0  0  0  0  0  0  0  0  0  0  0
    6.1986    2.8215    0.0000 H   0  0  0  0  0  0  0  0  0  0  0  0
    6.8170   -2.4713    0.0000 H   0  0  0  0  0  0  0  0  0  0  0  0
    5.2027    0.0507    0.0000 H   0  0  0  0  0  0  0  0  0  0  0  0
   11.9696    4.9022    0.0000 H   0  0  0  0  0  0  0  0  0  0  0  0
   14.1888    0.6396    0.0000 H   0  0  0  0  0  0  0  0  0  0  0  0
    7.2842    5.7699    0.0000 H   0  0  0  0  0  0  0  0  0  0  0  0
   10.4937   -1.5684    0.0000 H   0  0  0  0  0  0  0  0  0  0  0  0
    6.1122    1.4046    0.0000 H   0  0  0  0  0  0  0  0  0  0  0  0
    8.2176   -2.2402    0.0000 H   0  0  0  0  0  0  0  0  0  0  0  0
    6.2566   -0.9002    0.0000 H   0  0  0  0  0  0  0  0  0  0  0  0
   10.5845    5.1494    0.0000 H   0  0  0  0  0  0  0  0  0  0  0  0
   13.5185    1.8766    0.0000 H   0  0  0  0  0  0  0  0  0  0  0  0
    7.6342    4.4072    0.0000 H   0  0  0  0  0  0  0  0  0  0  0  0
   11.8850   -1.3204    0.0000 H   0  0  0  0  0  0  0  0  0  0  0  0
    4.9485    0.5658    0.0000 H   0  0  0  0  0  0  0  0  0  0  0  0
    9.2836   -3.1777    0.0000 H   0  0  0  0  0  0  0  0  0  0  0  0
    6.1892   -2.3079    0.0000 H   0  0  0  0  0  0  0  0  0  0  0  0
   10.5160    2.4635    0.0000 H   0  0  0  0  0  0  0  0  0  0  0  0
   11.3759    0.2555    0.0000 H   0  0  0  0  0  0  0  0  0  0  0  0
    8.2846    3.1130    0.0000 H   0  0  0  0  0  0  0  0  0  0  0  0
   11.9473   -4.0071    0.0000 H   0  0  0  0  0  0  0  0  0  0  0  0
    3.7445    2.9712    0.0000 H   0  0  0  0  0  0  0  0  0  0  0  0
    7.2172   -4.8972    0.0000 H   0  0  0  0  0  0  0  0  0  0  0  0
    3.5556   -1.7747    0.0000 H   0  0  0  0  0  0  0  0  0  0  0  0
   11.5615    1.6446    0.0000 H   0  0  0  0  0  0  0  0  0  0  0  0
   10.9235    1.0815    0.0000 H   0  0  0  0  0  0  0  0  0  0  0  0
   11.4453   -1.0294    0.0000 H   0  0  0  0  0  0  0  0  0  0  0  0
   10.6483   -1.0294    0.0000 H   0  0  0  0  0  0  0  0  0  0  0  0
    9.5218    3.4666    0.0000 H   0  0  0  0  0  0  0  0  0  0  0  0
    9.6992    2.6895    0.0000 H   0  0  0  0  0  0  0  0  0  0  0  0
   11.3963   -5.3772    0.0000 H   0  0  0  0  0  0  0  0  0  0  0  0
   10.8994   -4.7540    0.0000 H   0  0  0  0  0  0  0  0  0  0  0  0
    3.6465    4.4445    0.0000 H   0  0  0  0  0  0  0  0  0  0  0  0
    4.3646    4.0987    0.0000 H   0  0  0  0  0  0  0  0  0  0  0  0
    5.8026   -5.3206    0.0000 H   0  0  0  0  0  0  0  0  0  0  0  0
    5.9800   -4.5436    0.0000 H   0  0  0  0  0  0  0  0  0  0  0  0
    2.3425   -0.9327    0.0000 H   0  0  0  0  0  0  0  0  0  0  0  0
    3.0606   -0.5869    0.0000 H   0  0  0  0  0  0  0  0  0  0  0  0
   12.9036    5.2650    0.0000 H   0  0  0  0  0  0  0  0  0  0  0  0
   15.0549    0.1355    0.0000 H   0  0  0  0  0  0  0  0  0  0  0  0
    7.5829    6.7264    0.0000 H   0  0  0  0  0  0  0  0  0  0  0  0
    9.5596   -1.2056    0.0000 H   0  0  0  0  0  0  0  0  0  0  0  0
    7.1112    1.4830    0.0000 H   0  0  0  0  0  0  0  0  0  0  0  0
    7.9189   -1.2838    0.0000 H   0  0  0  0  0  0  0  0  0  0  0  0
    6.8181   -0.0703    0.0000 H   0  0  0  0  0  0  0  0  0  0  0  0
   10.1466    6.3804    0.0000 H   0  0  0  0  0  0  0  0  0  0  0  0
   10.8521    6.9011    0.0000 H   0  0  0  0  0  0  0  0  0  0  0  0
   11.3727    6.1956    0.0000 H   0  0  0  0  0  0  0  0  0  0  0  0
   14.2079    2.9865    0.0000 H   0  0  0  0  0  0  0  0  0  0  0  0
   15.0549    2.7596    0.0000 H   0  0  0  0  0  0  0  0  0  0  0  0
   14.8279    1.9126    0.0000 H   0  0  0  0  0  0  0  0  0  0  0  0
    4.9918    5.2663    0.0000 H   0  0  0  0  0  0  0  0  0  0  0  0
    5.0246    6.1425    0.0000 H   0  0  0  0  0  0  0  0  0  0  0  0
    5.9008    6.1097    0.0000 H   0  0  0  0  0  0  0  0  0  0  0  0
   11.9233    0.1331    0.0000 H   0  0  0  0  0  0  0  0  0  0  0  0
   12.7756    0.3389    0.0000 H   0  0  0  0  0  0  0  0  0  0  0  0
   12.9814   -0.5134    0.0000 H   0  0  0  0  0  0  0  0  0  0  0  0
    6.1906    0.7833    0.0000 H   0  0  0  0  0  0  0  0  0  0  0  0
    6.6195    0.0185    0.0000 H   0  0  0  0  0  0  0  0  0  0  0  0
    5.8548   -0.4104    0.0000 H   0  0  0  0  0  0  0  0  0  0  0  0
    8.8059   -2.0256    0.0000 H   0  0  0  0  0  0  0  0  0  0  0  0
    9.4560   -1.4372    0.0000 H   0  0  0  0  0  0  0  0  0  0  0  0
   10.0444   -2.0874    0.0000 H   0  0  0  0  0  0  0  0  0  0  0  0
    6.7911   -1.2263    0.0000 H   0  0  0  0  0  0  0  0  0  0  0  0
    7.6565   -1.3677    0.0000 H   0  0  0  0  0  0  0  0  0  0  0  0
    7.5150   -2.2330    0.0000 H   0  0  0  0  0  0  0  0  0  0  0  0
   10.0107    0.5015    0.0000 H   0  0  0  0  0  0  0  0  0  0  0  0
    9.1697    0.2535    0.0000 H   0  0  0  0  0  0  0  0  0  0  0  0
    8.9217    1.0945    0.0000 H   0  0  0  0  0  0  0  0  0  0  0  0
    9.6247   -1.0914    0.0000 H   0  0  0  0  0  0  0  0  0  0  0  0
    8.7778   -0.8645    0.0000 H   0  0  0  0  0  0  0  0  0  0  0  0
    9.0047   -0.0176    0.0000 H   0  0  0  0  0  0  0  0  0  0  0  0
    8.0158    1.1898    0.0000 H   0  0  0  0  0  0  0  0  0  0  0  0
    7.2733    1.6563    0.0000 H   0  0  0  0  0  0  0  0  0  0  0  0
    7.7398    2.3987    0.0000 H   0  0  0  0  0  0  0  0  0  0  0  0
   13.2122   -6.0312    0.0000 H   0  0  0  0  0  0  0  0  0  0  0  0
   12.6915   -6.7367    0.0000 H   0  0  0  0  0  0  0  0  0  0  0  0
   11.9860   -6.2160    0.0000 H   0  0  0  0  0  0  0  0  0  0  0  0
    1.7267    4.2460    0.0000 H   0  0  0  0  0  0  0  0  0  0  0  0
    1.8897    5.1075    0.0000 H   0  0  0  0  0  0  0  0  0  0  0  0
    2.7512    4.9445    0.0000 H   0  0  0  0  0  0  0  0  0  0  0  0
    6.4234   -7.1481    0.0000 H   0  0  0  0  0  0  0  0  0  0  0  0
    5.5472   -7.1809    0.0000 H   0  0  0  0  0  0  0  0  0  0  0  0
    5.5144   -6.3047    0.0000 H   0  0  0  0  0  0  0  0  0  0  0  0
    1.3008   -2.5575    0.0000 H   0  0  0  0  0  0  0  0  0  0  0  0
    0.7288   -1.8929    0.0000 H   0  0  0  0  0  0  0  0  0  0  0  0
    1.3934   -1.3209    0.0000 H   0  0  0  0  0  0  0  0  0  0  0  0
  1 36  1  0  0  0  0
  1 58  1  0  0  0  0
  2 37  1  0  0  0  0
  2 57  1  0  0  0  0
  3 38  1  0  0  0  0
  3 60  1  0  0  0  0
  4 39  1  0  0  0  0
  4 59  1  0  0  0  0
  5 40  1  0  0  0  0
  5 62  1  0  0  0  0
  6 41  1  0  0  0  0
  6 61  1  0  0  0  0
  7 42  1  0  0  0  0
  7 63  1  0  0  0  0
  8 57  1  0  0  0  0
  8 64  1  0  0  0  0
  9 58  1  0  0  0  0
  9 65  1  0  0  0  0
 10 59  1  0  0  0  0
 10 66  1  0  0  0  0
 11 60  1  0  0  0  0
 11 67  1  0  0  0  0
 12 61  1  0  0  0  0
 12 68  1  0  0  0  0
 13 62  1  0  0  0  0
 13 69  1  0  0  0  0
 14 63  1  0  0  0  0
 14 70  1  0  0  0  0
 50 15  1  6  0  0  0
 15 78  1  0  0  0  0
 51 16  1  6  0  0  0
 16 79  1  0  0  0  0
 52 17  1  6  0  0  0
 17 80  1  0  0  0  0
 53 18  1  1  0  0  0
 18 81  1  0  0  0  0
 54 19  1  1  0  0  0
 19 82  1  0  0  0  0
 55 20  1  1  0  0  0
 20 83  1  0  0  0  0
 56 21  1  1  0  0  0
 21 84  1  0  0  0  0
 43 22  1  1  0  0  0
 22141  1  0  0  0  0
 44 23  1  1  0  0  0
 23142  1  0  0  0  0
 45 24  1  1  0  0  0
 24143  1  0  0  0  0
 46 25  1  6  0  0  0
 25144  1  0  0  0  0
 47 26  1  6  0  0  0
 26145  1  0  0  0  0
 48 27  1  6  0  0  0
 27146  1  0  0  0  0
 49 28  1  6  0  0  0
 28147  1  0  0  0  0
 29 71  1  0  0  0  0
 29 85  1  0  0  0  0
 30 72  1  0  0  0  0
 30 86  1  0  0  0  0
 31 73  1  0  0  0  0
 31 87  1  0  0  0  0
 32 74  1  0  0  0  0
 32 88  1  0  0  0  0
 33 75  1  0  0  0  0
 33 89  1  0  0  0  0
 34 76  1  0  0  0  0
 34 90  1  0  0  0  0
 35 77  1  0  0  0  0
 35 91  1  0  0  0  0
 36 43  1  0  0  0  0
 36 64  1  0  0  0  0
 36 92  1  1  0  0  0
 37 45  1  0  0  0  0
 37 66  1  0  0  0  0
 37 93  1  1  0  0  0
 38 44  1  0  0  0  0
 38 65  1  0  0  0  0
 38 94  1  1  0  0  0
 39 47  1  0  0  0  0
 39 68  1  0  0  0  0
 39 95  1  6  0  0  0
 40 46  1  0  0  0  0
 40 67  1  0  0  0  0
 40 96  1  6  0  0  0
 41 49  1  0  0  0  0
 41 70  1  0  0  0  0
 41 97  1  6  0  0  0
 42 48  1  0  0  0  0
 42 69  1  0  0  0  0
 42 98  1  6  0  0  0
 43 50  1  0  0  0  0
 43 99  1  0  0  0  0
 44 51  1  0  0  0  0
 44100  1  0  0  0  0
 45 52  1  0  0  0  0
 45101  1  0  0  0  0
 46 53  1  0  0  0  0
 46102  1  0  0  0  0
 47 54  1  0  0  0  0
 47103  1  0  0  0  0
 48 55  1  0  0  0  0
 48104  1  0  0  0  0
 49 56  1  0  0  0  0
 49105  1  0  0  0  0
 50 57  1  0  0  0  0
 50106  1  0  0  0  0
 51 58  1  0  0  0  0
 51107  1  0  0  0  0
 52 59  1  0  0  0  0
 52108  1  0  0  0  0
 53 60  1  0  0  0  0
 53109  1  0  0  0  0
 54 61  1  0  0  0  0
 54110  1  0  0  0  0
 55 62  1  0  0  0  0
 55111  1  0  0  0  0
 56 63  1  0  0  0  0
 56112  1  0  0  0  0
 57113  1  1  0  0  0
 58114  1  1  0  0  0
 59115  1  1  0  0  0
 60116  1  6  0  0  0
 61117  1  6  0  0  0
 62118  1  6  0  0  0
 63119  1  6  0  0  0
 64 71  1  1  0  0  0
 64120  1  0  0  0  0
 65 72  1  1  0  0  0
 65121  1  0  0  0  0
 66 73  1  1  0  0  0
 66122  1  0  0  0  0
 67 74  1  6  0  0  0
 67123  1  0  0  0  0
 68 75  1  6  0  0  0
 68124  1  0  0  0  0
 69 76  1  6  0  0  0
 69125  1  0  0  0  0
 70 77  1  6  0  0  0
 70126  1  0  0  0  0
 71127  1  0  0  0  0
 71128  1  0  0  0  0
 72129  1  0  0  0  0
 72130  1  0  0  0  0
 73131  1  0  0  0  0
 73132  1  0  0  0  0
 74133  1  0  0  0  0
 74134  1  0  0  0  0
 75135  1  0  0  0  0
 75136  1  0  0  0  0
 76137  1  0  0  0  0
 76138  1  0  0  0  0
 77139  1  0  0  0  0
 77140  1  0  0  0  0
 78148  1  0  0  0  0
 78149  1  0  0  0  0
 78150  1  0  0  0  0
 79151  1  0  0  0  0
 79152  1  0  0  0  0
 79153  1  0  0  0  0
 80154  1  0  0  0  0
 80155  1  0  0  0  0
 80156  1  0  0  0  0
 81157  1  0  0  0  0
 81158  1  0  0  0  0
 81159  1  0  0  0  0
 82160  1  0  0  0  0
 82161  1  0  0  0  0
 82162  1  0  0  0  0
 83163  1  0  0  0  0
 83164  1  0  0  0  0
 83165  1  0  0  0  0
 84166  1  0  0  0  0
 84167  1  0  0  0  0
 84168  1  0  0  0  0
 85169  1  0  0  0  0
 85170  1  0  0  0  0
 85171  1  0  0  0  0
 86172  1  0  0  0  0
 86173  1  0  0  0  0
 86174  1  0  0  0  0
 87175  1  0  0  0  0
 87176  1  0  0  0  0
 87177  1  0  0  0  0
 88178  1  0  0  0  0
 88179  1  0  0  0  0
 88180  1  0  0  0  0
 89181  1  0  0  0  0
 89182  1  0  0  0  0
 89183  1  0  0  0  0
 90184  1  0  0  0  0
 90185  1  0  0  0  0
 90186  1  0  0  0  0
 91187  1  0  0  0  0
 91188  1  0  0  0  0
 91189  1  0  0  0  0
M  END
> <PUBCHEM_COMPOUND_CID>
10171019

> <PUBCHEM_COMPOUND_CANONICALIZED>
1

> <PUBCHEM_CACTVS_COMPLEXITY>
1690

> <PUBCHEM_CACTVS_HBOND_ACCEPTOR>
35

> <PUBCHEM_CACTVS_HBOND_DONOR>
7

> <PUBCHEM_CACTVS_ROTATABLE_BOND>
21

> <PUBCHEM_CACTVS_SUBSKEYS>
AAADcfB8PgAAAAAAAAAAAAAAAAAAAAAAAAAkSJEiQAAAAAAAAAAAGgAACAAACBSwgAMCCAAABgAAAAAAAAAAAAAAAAAAAAAAAAAREAIAAAAiQAAFAAAHAAHAYAwAAAAAAAAAAAAAAAAAAAAAAAAAAAAAAA==

> <PUBCHEM_IUPAC_OPENEYE_NAME>
(1S,3R,5R,6S,8R,10R,11S,13R,15R,16S,18R,20R,21S,23R,25R,26S,28R,30R,31S,33R,35R,36S,37R,38S,39R,40S,41R,42S,43R,44S,45R,46S,47R,48S,49R)-37,39,41,43,45,47,49-heptamethoxy-5,10,15,20,25,30,35-heptakis(methoxymethyl)-2,4,7,9,12,14,17,19,22,24,27,29,32,34-tetradecaoxaoctacyclo[31.2.2.23,6.28,11.213,16.218,21.223,26.228,31]nonatetracontane-36,38,40,42,44,46,48-heptol

> <PUBCHEM_IUPAC_CAS_NAME>
(1S,3R,5R,6S,8R,10R,11S,13R,15R,16S,18R,20R,21S,23R,25R,26S,28R,30R,31S,33R,35R,36S,37R,38S,39R,40S,41R,42S,43R,44S,45R,46S,47R,48S,49R)-37,39,41,43,45,47,49-heptamethoxy-5,10,15,20,25,30,35-heptakis(methoxymethyl)-2,4,7,9,12,14,17,19,22,24,27,29,32,34-tetradecaoxaoctacyclo[31.2.2.23,6.28,11.213,16.218,21.223,26.228,31]nonatetracontane-36,38,40,42,44,46,48-heptol

> <PUBCHEM_IUPAC_NAME_MARKUP>
(1<I>S</I>,3<I>R</I>,5<I>R</I>,6<I>S</I>,8<I>R</I>,10<I>R</I>,11<I>S</I>,13<I>R</I>,15<I>R</I>,16<I>S</I>,18<I>R</I>,20<I>R</I>,21<I>S</I>,23<I>R</I>,25<I>R</I>,26<I>S</I>,28<I>R</I>,30<I>R</I>,31<I>S</I>,33<I>R</I>,35<I>R</I>,36<I>S</I>,37<I>R</I>,38<I>S</I>,39<I>R</I>,40<I>S</I>,41<I>R</I>,42<I>S</I>,43<I>R</I>,44<I>S</I>,45<I>R</I>,46<I>S</I>,47<I>R</I>,48<I>S</I>,49<I>R</I>)-37,39,41,43,45,47,49-heptamethoxy-5,10,15,20,25,30,35-heptakis(methoxymethyl)-2,4,7,9,12,14,17,19,22,24,27,29,32,34-tetradecaoxaoctacyclo[31.2.2.2<SUP>3,6</SUP>.2<SUP>8,11</SUP>.2<SUP>13,16</SUP>.2<SUP>18,21</SUP>.2<SUP>23,26</SUP>.2<SUP>28,31</SUP>]nonatetracontane-36,38,40,42,44,46,48-heptol

> <PUBCHEM_IUPAC_NAME>
(1S,3R,5R,6S,8R,10R,11S,13R,15R,16S,18R,20R,21S,23R,25R,26S,28R,30R,31S,33R,35R,36S,37R,38S,39R,40S,41R,42S,43R,44S,45R,46S,47R,48S,49R)-37,39,41,43,45,47,49-heptamethoxy-5,10,15,20,25,30,35-heptakis(methoxymethyl)-2,4,7,9,12,14,17,19,22,24,27,29,32,34-tetradecaoxaoctacyclo[31.2.2.23,6.28,11.213,16.218,21.223,26.228,31]nonatetracontane-36,38,40,42,44,46,48-heptol

> <PUBCHEM_IUPAC_SYSTEMATIC_NAME>
(1S,3R,5R,6S,8R,10R,11S,13R,15R,16S,18R,20R,21S,23R,25R,26S,28R,30R,31S,33R,35R,36S,37R,38S,39R,40S,41R,42S,43R,44S,45R,46S,47R,48S,49R)-37,39,41,43,45,47,49-heptamethoxy-5,10,15,20,25,30,35-heptakis(methoxymethyl)-2,4,7,9,12,14,17,19,22,24,27,29,32,34-tetradecaoxaoctacyclo[31.2.2.23,6.28,11.213,16.218,21.223,26.228,31]nonatetracontane-36,38,40,42,44,46,48-heptol

> <PUBCHEM_IUPAC_TRADITIONAL_NAME>
(1S,3R,5R,6S,8R,10R,11S,13R,15R,16S,18R,20R,21S,23R,25R,26S,28R,30R,31S,33R,35R,36S,37R,38S,39R,40S,41R,42S,43R,44S,45R,46S,47R,48S,49R)-37,39,41,43,45,47,49-heptamethoxy-5,10,15,20,25,30,35-heptakis(methoxymethyl)-2,4,7,9,12,14,17,19,22,24,27,29,32,34-tetradecaoxaoctacyclo[31.2.2.23,6.28,11.213,16.218,21.223,26.228,31]nonatetracontane-36,38,40,42,44,46,48-heptol

> <PUBCHEM_IUPAC_INCHI>
InChI=1S/C56H98O35/c1-64-15-22-36-29(57)43(71-8)50(78-22)86-37-23(16-65-2)80-52(45(73-10)30(37)58)88-39-25(18-67-4)82-54(47(75-12)32(39)60)90-41-27(20-69-6)84-56(49(77-14)34(41)62)91-42-28(21-70-7)83-55(48(76-13)35(42)63)89-40-26(19-68-5)81-53(46(74-11)33(40)61)87-38-24(17-66-3)79-51(85-36)44(72-9)31(38)59/h22-63H,15-21H2,1-14H3/t22-,23-,24-,25-,26-,27-,28-,29+,30+,31+,32+,33+,34+,35+,36-,37-,38-,39-,40-,41-,42-,43-,44-,45-,46-,47-,48-,49-,50-,51-,52-,53-,54-,55-,56-/m1/s1

> <PUBCHEM_IUPAC_INCHIKEY>
QGKBSGBYSPTPKJ-UZMKXNTCSA-N

> <PUBCHEM_XLOGP3_AA>
-7.5

> <PUBCHEM_EXACT_MASS>
1330.588865

> <PUBCHEM_MOLECULAR_FORMULA>
C56H98O35

> <PUBCHEM_MOLECULAR_WEIGHT>
1331.4

> <PUBCHEM_OPENEYE_CAN_SMILES>
COCC1C2C(C(C(O1)OC3C(OC(C(C3O)OC)OC4C(OC(C(C4O)OC)OC5C(OC(C(C5O)OC)OC6C(OC(C(C6O)OC)OC7C(OC(C(C7O)OC)OC8C(OC(O2)C(C8O)OC)COC)COC)COC)COC)COC)COC)OC)O

> <PUBCHEM_OPENEYE_ISO_SMILES>
COC[C@@H]1[C@@H]2[C@@H]([C@H]([C@H](O1)O[C@@H]3[C@H](O[C@@H]([C@@H]([C@H]3O)OC)O[C@@H]4[C@H](O[C@@H]([C@@H]([C@H]4O)OC)O[C@@H]5[C@H](O[C@@H]([C@@H]([C@H]5O)OC)O[C@@H]6[C@H](O[C@@H]([C@@H]([C@H]6O)OC)O[C@@H]7[C@H](O[C@@H]([C@@H]([C@H]7O)OC)O[C@@H]8[C@H](O[C@H](O2)[C@@H]([C@H]8O)OC)COC)COC)COC)COC)COC)COC)OC)O

> <PUBCHEM_CACTVS_TPSA>
400

> <PUBCHEM_MONOISOTOPIC_WEIGHT>
1330.588865

> <PUBCHEM_TOTAL_CHARGE>
0

> <PUBCHEM_HEAVY_ATOM_COUNT>
91

> <PUBCHEM_ATOM_DEF_STEREO_COUNT>
35

> <PUBCHEM_ATOM_UDEF_STEREO_COUNT>
0

> <PUBCHEM_BOND_DEF_STEREO_COUNT>
0

> <PUBCHEM_BOND_UDEF_STEREO_COUNT>
0

> <PUBCHEM_ISOTOPIC_ATOM_COUNT>
0

> <PUBCHEM_COMPONENT_COUNT>
1

> <PUBCHEM_CACTVS_TAUTO_COUNT>
-1

> <PUBCHEM_COORDINATE_TYPE>
1
5
255

> <PUBCHEM_BONDANNOTATIONS>
50  15  6
51  16  6
52  17  6
53  18  5
54  19  5
55  20  5
56  21  5
43  22  5
44  23  5
45  24  5
46  25  6
47  26  6
48  27  6
49  28  6
36  92  5
37  93  5
38  94  5
39  95  6
40  96  6
41  97  6
42  98  6
57  113  5
58  114  5
59  115  5
60  116  6
61  117  6
62  118  6
63  119  6
64  71  5
65  72  5
66  73  5
67  74  6
68  75  6
69  76  6
70  77  6

$$$$
