702
 OpenBabel03092011253D

  9  8  0  0  0  0  0  0  0  0999 V2000
    1.0275   -0.0523   -0.0917 O   0  0  0  0  0  0  0  0  0  0  0  0
    0.5470   -1.3723   -0.2961 C   0  0  0  0  0  0  0  0  0  0  0  0
    1.0493   -1.8793   -1.6314 C   0  0  0  0  0  0  0  0  0  0  0  0
    0.6895    0.2444    0.7704 H   0  0  0  0  0  0  0  0  0  0  0  0
   -0.5472   -1.3559   -0.2784 H   0  0  0  0  0  0  0  0  0  0  0  0
    0.9087   -2.0091    0.5173 H   0  0  0  0  0  0  0  0  0  0  0  0
    0.7076   -1.2295   -2.4433 H   0  0  0  0  0  0  0  0  0  0  0  0
    0.6962   -2.8964   -1.8203 H   0  0  0  0  0  0  0  0  0  0  0  0
    2.1435   -1.8738   -1.6585 H   0  0  0  0  0  0  0  0  0  0  0  0
  1  2  1  0  0  0  0
  1  4  1  0  0  0  0
  2  3  1  0  0  0  0
  2  5  1  0  0  0  0
  2  6  1  0  0  0  0
  3  7  1  0  0  0  0
  3  8  1  0  0  0  0
  3  9  1  0  0  0  0
M  END
>  <PUBCHEM_COMPOUND_CID>
702

>  <PUBCHEM_COMPOUND_CANONICALIZED>
1

>  <PUBCHEM_CACTVS_COMPLEXITY>
2.8

>  <PUBCHEM_CACTVS_HBOND_ACCEPTOR>
1

>  <PUBCHEM_CACTVS_HBOND_DONOR>
1

>  <PUBCHEM_CACTVS_ROTATABLE_BOND>
0

>  <PUBCHEM_CACTVS_SUBSKEYS>
AAADcYBAIAAAAAAAAAAAAAAAAAAAAAAAAAAAAAAAAAAAAAAAAAAAGgAACAAAAACggAICAAAAAgAAAAAAAAAAAAAAAAAAAAAAAAAAEAAAAAAAAAAAAAAAAAAAAAAAAAAAAAAAAAAAAAAAAAAAAAAAAAAAAA==

>  <PUBCHEM_IUPAC_OPENEYE_NAME>
ethanol

>  <PUBCHEM_IUPAC_CAS_NAME>
ethanol

>  <PUBCHEM_IUPAC_NAME_MARKUP>
ethanol

>  <PUBCHEM_IUPAC_NAME>
ethanol

>  <PUBCHEM_IUPAC_SYSTEMATIC_NAME>
ethanol

>  <PUBCHEM_IUPAC_TRADITIONAL_NAME>
ethanol

>  <PUBCHEM_IUPAC_INCHI>
InChI=1S/C2H6O/c1-2-3/h3H,2H2,1H3

>  <PUBCHEM_IUPAC_INCHIKEY>
LFQSCWFLJHTTHZ-UHFFFAOYSA-N

>  <PUBCHEM_XLOGP3_AA>
-0.1

>  <PUBCHEM_EXACT_MASS>
46.041865

>  <PUBCHEM_MOLECULAR_FORMULA>
C2H6O

>  <PUBCHEM_MOLECULAR_WEIGHT>
46.07

>  <PUBCHEM_OPENEYE_CAN_SMILES>
CCO

>  <PUBCHEM_OPENEYE_ISO_SMILES>
CCO

>  <PUBCHEM_CACTVS_TPSA>
20.2

>  <PUBCHEM_MONOISOTOPIC_WEIGHT>
46.041865

>  <PUBCHEM_TOTAL_CHARGE>
0

>  <PUBCHEM_HEAVY_ATOM_COUNT>
3

>  <PUBCHEM_ATOM_DEF_STEREO_COUNT>
0

>  <PUBCHEM_ATOM_UDEF_STEREO_COUNT>
0

>  <PUBCHEM_BOND_DEF_STEREO_COUNT>
0

>  <PUBCHEM_BOND_UDEF_STEREO_COUNT>
0

>  <PUBCHEM_ISOTOPIC_ATOM_COUNT>
0

>  <PUBCHEM_COMPONENT_COUNT>
1

>  <PUBCHEM_CACTVS_TAUTO_COUNT>
-1

>  <PUBCHEM_COORDINATE_TYPE>
1
5
255

$$$$
