5287407
 OpenBabel03092011253D

168176  0  0  1  0  0  0  0  0999 V2000
    1.3282    2.4610   -1.8481 O   0  0  0  0  0  0  0  0  0  0  0  0
   -0.0102   -0.8479   -1.3879 O   0  0  0  0  0  0  0  0  0  0  0  0
    3.6415   -0.1839   -5.9886 O   0  0  0  0  0  0  0  0  0  0  0  0
    3.7552    1.5754    2.4483 O   0  0  0  0  0  0  0  0  0  0  0  0
    7.5347   -1.3922   -5.3672 O   0  0  0  0  0  0  0  0  0  0  0  0
    5.8850    3.1562    6.6735 O   0  0  0  0  0  0  0  0  0  0  0  0
   10.4717   -2.1038   -0.8580 O   0  0  0  0  0  0  0  0  0  0  0  0
    6.3980   -0.8551    2.5993 O   0  0  0  0  0  0  0  0  0  0  0  0
   -0.5059   -0.4123   -3.5930 O   0  0  0  0  0  0  0  0  0  0  0  0
    1.0678    1.2327    0.1340 O   0  0  0  0  0  0  0  0  0  0  0  0
    2.7956    0.8266   -3.7547 O   0  0  0  0  0  0  0  0  0  0  0  0
    5.4582   -2.3768   -5.7356 O   0  0  0  0  0  0  0  0  0  0  0  0
    5.8147    1.2267    4.2586 O   0  0  0  0  0  0  0  0  0  0  0  0
    9.6045   -0.7102   -2.5383 O   0  0  0  0  0  0  0  0  0  0  0  0
    4.3457    1.3103    5.2311 O   0  0  0  0  0  0  0  0  0  0  0  0
    8.4649   -2.0540    2.3346 O   0  0  0  0  0  0  0  0  0  0  0  0
   -1.3036    3.2890   -2.3837 O   0  0  0  0  0  0  0  0  0  0  0  0
    1.1948   -3.6017   -3.8416 O   0  0  0  0  0  0  0  0  0  0  0  0
    3.4506    4.3848    1.5167 O   0  0  0  0  0  0  0  0  0  0  0  0
    4.8454   -0.9233   -9.3187 O   0  0  0  0  0  0  0  0  0  0  0  0
    2.4207    2.2290    7.0199 O   0  0  0  0  0  0  0  0  0  0  0  0
    6.4976   -3.4954   -3.3604 O   0  0  0  0  0  0  0  0  0  0  0  0
    8.3808   -0.2796    5.7174 O   0  0  0  0  0  0  0  0  0  0  0  0
   10.2112    0.7987   -0.0491 O   0  0  0  0  0  0  0  0  0  0  0  0
   -3.0285    0.9481   -2.3177 O   0  0  0  0  0  0  0  0  0  0  0  0
    1.8279    4.7427   -0.6953 O   0  0  0  0  0  0  0  0  0  0  0  0
   -0.1608   -0.9050   -6.0650 O   0  0  0  0  0  0  0  0  0  0  0  0
    7.2248    0.2772   -7.6444 O   0  0  0  0  0  0  0  0  0  0  0  0
    3.2583    4.4765    4.3956 O   0  0  0  0  0  0  0  0  0  0  0  0
    8.4594   -4.1266   -1.5643 O   0  0  0  0  0  0  0  0  0  0  0  0
    7.8914    2.7636    3.6047 O   0  0  0  0  0  0  0  0  0  0  0  0
    7.4648    1.2264    0.9764 O   0  0  0  0  0  0  0  0  0  0  0  0
    3.0162   -2.3124   -2.8126 O   0  0  0  0  0  0  0  0  0  0  0  0
    3.7525   -0.7483   -0.1268 O   0  0  0  0  0  0  0  0  0  0  0  0
    0.6599    0.8114    3.7445 O   0  0  0  0  0  0  0  0  0  0  0  0
    3.2642   -3.7259   -8.3730 O   0  0  0  0  0  0  0  0  0  0  0  0
    5.8739   -0.4599    8.2677 O   0  0  0  0  0  0  0  0  0  0  0  0
    6.8979    1.4821   -3.7059 O   0  0  0  0  0  0  0  0  0  0  0  0
    3.9267   -2.5752    3.9309 O   0  0  0  0  0  0  0  0  0  0  0  0
    9.5353   -4.6223    2.6086 O   0  0  0  0  0  0  0  0  0  0  0  0
    0.6148    1.7499   -2.8885 C   0  0  1  0  0  0  0  0  0  0  0  0
    1.1438   -1.4162   -2.0677 C   0  0  1  0  0  0  0  0  0  0  0  0
    2.5468    2.1964    1.9518 C   0  0  1  0  0  0  0  0  0  0  0  0
    3.7955   -1.0865   -7.0986 C   0  0  1  0  0  0  0  0  0  0  0  0
    4.9643    2.1878    7.0461 C   0  0  1  0  0  0  0  0  0  0  0  0
    7.5215   -1.3576   -3.9148 C   0  0  1  0  0  0  0  0  0  0  0  0
    6.4242   -0.7323    4.0438 C   0  0  1  0  0  0  0  0  0  0  0  0
    9.9761   -1.5724    0.3894 C   0  0  1  0  0  0  0  0  0  0  0  0
   -0.9258    1.9765   -2.8258 C   0  0  1  0  0  0  0  0  0  0  0  0
    0.6314   -2.2643   -3.7534 C   0  0  1  0  0  0  0  0  0  0  0  0
    2.8608    3.2281    0.8769 C   0  0  1  0  0  0  0  0  0  0  0  0
    4.9334   -0.4766   -7.9593 C   0  0  1  0  0  0  0  0  0  0  0  0
    3.5608    2.8936    6.4451 C   0  0  1  0  0  0  0  0  0  0  0  0
    7.7459   -2.7767   -3.4110 C   0  0  1  0  0  0  0  0  0  0  0  0
    7.7340    0.3163    4.5699 C   0  0  1  0  0  0  0  0  0  0  0  0
    9.2452   -0.2309    0.2245 C   0  0  1  0  0  0  0  0  0  0  0  0
   -1.0281   -0.4603   -2.2784 C   0  0  1  0  0  0  0  0  0  0  0  0
    0.8476    2.4866   -0.4758 C   0  0  1  0  0  0  0  0  0  0  0  0
    2.3733    0.0861   -5.3848 C   0  0  1  0  0  0  0  0  0  0  0  0
    4.4817    2.2610    3.5105 C   0  0  1  0  0  0  0  0  0  0  0  0
    6.2256   -1.1791   -5.9109 C   0  0  1  0  0  0  0  0  0  0  0  0
    5.7897    2.6772    5.3410 C   0  0  1  0  0  0  0  0  0  0  0  0
    9.6863   -2.0544   -2.0709 C   0  0  1  0  0  0  0  0  0  0  0  0
    7.5614   -1.0804    1.8203 C   0  0  1  0  0  0  0  0  0  0  0  0
   -1.6295    0.9140   -1.9646 C   0  0  2  0  0  0  0  0  0  0  0  0
    1.5573    3.6654    0.2182 C   0  0  2  0  0  0  0  0  0  0  0  0
    1.0401   -1.3388   -5.4026 C   0  0  2  0  0  0  0  0  0  0  0  0
    6.3354   -0.8202   -7.4020 C   0  0  2  0  0  0  0  0  0  0  0  0
    3.3652    3.0767    4.7211 C   0  0  2  0  0  0  0  0  0  0  0  0
    8.3307   -2.7716   -2.0066 C   0  0  2  0  0  0  0  0  0  0  0  0
    7.5158    2.0855    4.8283 C   0  0  2  0  0  0  0  0  0  0  0  0
    8.3511    0.1758    1.3901 C   0  0  2  0  0  0  0  0  0  0  0  0
    0.9040    0.0891   -3.5898 C   0  0  1  0  0  0  0  0  0  0  0  0
    2.5294   -0.0355   -2.1427 C   0  0  1  0  0  0  0  0  0  0  0  0
    1.5368    1.1196    1.4746 C   0  0  1  0  0  0  0  0  0  0  0  0
    4.2798   -2.4675   -6.5694 C   0  0  1  0  0  0  0  0  0  0  0  0
    5.8457    0.8495    6.1963 C   0  0  1  0  0  0  0  0  0  0  0  0
    8.5642   -0.3144   -3.4445 C   0  0  1  0  0  0  0  0  0  0  0  0
    4.6688   -0.2961    4.4174 C   0  0  1  0  0  0  0  0  0  0  0  0
    9.2307   -2.6318    1.2441 C   0  0  1  0  0  0  0  0  0  0  0  0
    2.5402   -1.2487   -3.7486 C   0  0  0  0  0  0  0  0  0  0  0  0
    3.9111   -0.2335   -1.4424 C   0  0  0  0  0  0  0  0  0  0  0  0
    0.3008    0.9986    2.3848 C   0  0  0  0  0  0  0  0  0  0  0  0
    4.4749   -3.5380   -7.6532 C   0  0  0  0  0  0  0  0  0  0  0  0
    5.3705   -0.4447    6.9243 C   0  0  0  0  0  0  0  0  0  0  0  0
    7.8183    0.8863   -2.8016 C   0  0  0  0  0  0  0  0  0  0  0  0
    3.6433   -1.4101    4.7049 C   0  0  0  0  0  0  0  0  0  0  0  0
   10.2307   -3.6230    1.8622 C   0  0  0  0  0  0  0  0  0  0  0  0
   -0.7362    3.9293   -2.8517 H   0  0  0  0  0  0  0  0  0  0  0  0
    0.6978   -4.0649   -4.5439 H   0  0  0  0  0  0  0  0  0  0  0  0
    3.3682    5.1047    0.8540 H   0  0  0  0  0  0  0  0  0  0  0  0
    5.5486   -0.4483   -9.8027 H   0  0  0  0  0  0  0  0  0  0  0  0
    1.6397    2.6654    6.6374 H   0  0  0  0  0  0  0  0  0  0  0  0
    6.0309   -3.3097   -4.2045 H   0  0  0  0  0  0  0  0  0  0  0  0
    8.5843   -1.2052    5.4903 H   0  0  0  0  0  0  0  0  0  0  0  0
   10.7210    0.4935   -0.8261 H   0  0  0  0  0  0  0  0  0  0  0  0
   -3.2946    1.8864   -2.2523 H   0  0  0  0  0  0  0  0  0  0  0  0
    1.9907    4.3067   -1.5583 H   0  0  0  0  0  0  0  0  0  0  0  0
   -0.8255   -0.7521   -5.3621 H   0  0  0  0  0  0  0  0  0  0  0  0
    7.9893    0.1338   -7.0523 H   0  0  0  0  0  0  0  0  0  0  0  0
    3.3559    4.5593    3.4220 H   0  0  0  0  0  0  0  0  0  0  0  0
    7.6067   -4.5523   -1.7960 H   0  0  0  0  0  0  0  0  0  0  0  0
    8.8649    2.7278    3.5687 H   0  0  0  0  0  0  0  0  0  0  0  0
    7.1815    1.6749    1.8021 H   0  0  0  0  0  0  0  0  0  0  0  0
    2.6542   -3.1780   -3.1157 H   0  0  0  0  0  0  0  0  0  0  0  0
    4.5607   -0.5316    0.3731 H   0  0  0  0  0  0  0  0  0  0  0  0
   -0.1221    0.4566    4.2041 H   0  0  0  0  0  0  0  0  0  0  0  0
    3.4930   -4.1992   -9.1935 H   0  0  0  0  0  0  0  0  0  0  0  0
    5.1326   -0.2457    8.8629 H   0  0  0  0  0  0  0  0  0  0  0  0
    6.4384    2.1857   -3.2099 H   0  0  0  0  0  0  0  0  0  0  0  0
    3.9480   -2.3058    2.9930 H   0  0  0  0  0  0  0  0  0  0  0  0
    8.8422   -4.1530    3.1098 H   0  0  0  0  0  0  0  0  0  0  0  0
    0.9222    2.3757   -3.7424 H   0  0  0  0  0  0  0  0  0  0  0  0
    1.4823   -2.1939   -1.3678 H   0  0  0  0  0  0  0  0  0  0  0  0
    2.0480    2.7390    2.7470 H   0  0  0  0  0  0  0  0  0  0  0  0
    2.8668   -1.1556   -7.6745 H   0  0  0  0  0  0  0  0  0  0  0  0
    4.9352    2.0295    8.1268 H   0  0  0  0  0  0  0  0  0  0  0  0
    6.5255   -1.0479   -3.5701 H   0  0  0  0  0  0  0  0  0  0  0  0
    6.5902   -1.7341    4.4551 H   0  0  0  0  0  0  0  0  0  0  0  0
   10.8948   -1.3356    0.9454 H   0  0  0  0  0  0  0  0  0  0  0  0
   -1.3213    1.9097   -3.8492 H   0  0  0  0  0  0  0  0  0  0  0  0
   -0.4472   -2.4755   -3.7339 H   0  0  0  0  0  0  0  0  0  0  0  0
    3.5911    2.8620    0.1477 H   0  0  0  0  0  0  0  0  0  0  0  0
    4.8079    0.6131   -7.9910 H   0  0  0  0  0  0  0  0  0  0  0  0
    3.5405    3.9197    6.8385 H   0  0  0  0  0  0  0  0  0  0  0  0
    8.3838   -3.3480   -4.0950 H   0  0  0  0  0  0  0  0  0  0  0  0
    8.5193    0.2587    3.8366 H   0  0  0  0  0  0  0  0  0  0  0  0
    8.5853   -0.2620   -0.6275 H   0  0  0  0  0  0  0  0  0  0  0  0
   -1.8162   -1.2208   -2.2535 H   0  0  0  0  0  0  0  0  0  0  0  0
   -0.2172    2.7088   -0.4442 H   0  0  0  0  0  0  0  0  0  0  0  0
    1.9610    0.9583   -5.9145 H   0  0  0  0  0  0  0  0  0  0  0  0
    5.0960    3.0062    2.9870 H   0  0  0  0  0  0  0  0  0  0  0  0
    5.7876   -0.3374   -5.3670 H   0  0  0  0  0  0  0  0  0  0  0  0
    5.5609    3.5686    4.7401 H   0  0  0  0  0  0  0  0  0  0  0  0
   10.3082   -2.5897   -2.7983 H   0  0  0  0  0  0  0  0  0  0  0  0
    7.1146   -1.4901    0.9046 H   0  0  0  0  0  0  0  0  0  0  0  0
   -1.5897    1.1263   -0.8939 H   0  0  0  0  0  0  0  0  0  0  0  0
    0.8980    4.0775    0.9934 H   0  0  0  0  0  0  0  0  0  0  0  0
    1.4269   -2.1106   -6.0819 H   0  0  0  0  0  0  0  0  0  0  0  0
    6.7675   -1.6674   -7.9472 H   0  0  0  0  0  0  0  0  0  0  0  0
    2.3716    2.6541    4.5592 H   0  0  0  0  0  0  0  0  0  0  0  0
    7.6418   -2.2729   -1.3167 H   0  0  0  0  0  0  0  0  0  0  0  0
    8.2033    2.4185    5.6175 H   0  0  0  0  0  0  0  0  0  0  0  0
    9.0236    0.5904    2.1389 H   0  0  0  0  0  0  0  0  0  0  0  0
    0.7396    0.5584   -4.5573 H   0  0  0  0  0  0  0  0  0  0  0  0
    2.1521    0.7340   -1.5359 H   0  0  0  0  0  0  0  0  0  0  0  0
    2.0391    0.1474    1.5400 H   0  0  0  0  0  0  0  0  0  0  0  0
    3.5145   -2.8918   -5.9228 H   0  0  0  0  0  0  0  0  0  0  0  0
    6.8734    1.0124    6.5329 H   0  0  0  0  0  0  0  0  0  0  0  0
    9.0752    0.0843   -4.3295 H   0  0  0  0  0  0  0  0  0  0  0  0
    4.3332   -0.0892    3.4033 H   0  0  0  0  0  0  0  0  0  0  0  0
    8.5260   -3.2143    0.6497 H   0  0  0  0  0  0  0  0  0  0  0  0
    3.5608   -0.8219   -3.8686 H   0  0  0  0  0  0  0  0  0  0  0  0
    2.6222   -1.8973   -4.6088 H   0  0  0  0  0  0  0  0  0  0  0  0
    4.6180   -0.8602   -1.9904 H   0  0  0  0  0  0  0  0  0  0  0  0
    4.3932    0.7499   -1.3710 H   0  0  0  0  0  0  0  0  0  0  0  0
   -0.3081    0.1461    2.0595 H   0  0  0  0  0  0  0  0  0  0  0  0
   -0.3289    1.8910    2.3058 H   0  0  0  0  0  0  0  0  0  0  0  0
    4.7488   -4.4903   -7.1843 H   0  0  0  0  0  0  0  0  0  0  0  0
    5.2811   -3.2917   -8.3475 H   0  0  0  0  0  0  0  0  0  0  0  0
    5.7333   -1.3629    6.4652 H   0  0  0  0  0  0  0  0  0  0  0  0
    4.2836   -0.4547    7.0270 H   0  0  0  0  0  0  0  0  0  0  0  0
    7.2431    0.5553   -1.9304 H   0  0  0  0  0  0  0  0  0  0  0  0
    8.5291    1.6464   -2.4607 H   0  0  0  0  0  0  0  0  0  0  0  0
    2.6359   -1.0612    4.4525 H   0  0  0  0  0  0  0  0  0  0  0  0
    3.5905   -1.7379    5.7393 H   0  0  0  0  0  0  0  0  0  0  0  0
   10.9031   -3.1138    2.5613 H   0  0  0  0  0  0  0  0  0  0  0  0
   10.8313   -4.1223    1.0961 H   0  0  0  0  0  0  0  0  0  0  0  0
  1 58  1  0  0  0  0
  1 41  1  0  0  0  0
  2 42  1  0  0  0  0
  2 57  1  0  0  0  0
  3 44  1  0  0  0  0
  3 59  1  0  0  0  0
  4 43  1  0  0  0  0
  4 60  1  0  0  0  0
  5 46  1  0  0  0  0
  5 61  1  0  0  0  0
  6 45  1  0  0  0  0
  6 62  1  0  0  0  0
  7 48  1  0  0  0  0
  7 63  1  0  0  0  0
  8 47  1  0  0  0  0
  8 64  1  0  0  0  0
  9 57  1  0  0  0  0
  9 73  1  0  0  0  0
 10 58  1  0  0  0  0
 10 75  1  0  0  0  0
 11 59  1  0  0  0  0
 11 74  1  0  0  0  0
 12 61  1  0  0  0  0
 12 76  1  0  0  0  0
 13 60  1  0  0  0  0
 13 77  1  0  0  0  0
 14 63  1  0  0  0  0
 14 78  1  0  0  0  0
 15 62  1  0  0  0  0
 15 79  1  0  0  0  0
 16 64  1  0  0  0  0
 16 80  1  0  0  0  0
 17 89  1  0  0  0  0
 18 90  1  0  0  0  0
 19 91  1  0  0  0  0
 20 92  1  0  0  0  0
 21 93  1  0  0  0  0
 22 94  1  0  0  0  0
 23 95  1  0  0  0  0
 24 96  1  0  0  0  0
 25 97  1  0  0  0  0
 26 98  1  0  0  0  0
 27 99  1  0  0  0  0
 28100  1  0  0  0  0
 29101  1  0  0  0  0
 30102  1  0  0  0  0
 31103  1  0  0  0  0
 32104  1  0  0  0  0
 33 81  1  0  0  0  0
 33105  1  0  0  0  0
 34 82  1  0  0  0  0
 34106  1  0  0  0  0
 35 83  1  0  0  0  0
 35107  1  0  0  0  0
 36 84  1  0  0  0  0
 36108  1  0  0  0  0
 37 85  1  0  0  0  0
 37109  1  0  0  0  0
 38 86  1  0  0  0  0
 38110  1  0  0  0  0
 39 87  1  0  0  0  0
 39111  1  0  0  0  0
 40 88  1  0  0  0  0
 40112  1  0  0  0  0
 41 49  1  0  0  0  0
 41 73  1  0  0  0  0
 41113  1  6  0  0  0
 42 50  1  0  0  0  0
 42 74  1  0  0  0  0
 42114  1  6  0  0  0
 43 51  1  0  0  0  0
 43 75  1  0  0  0  0
 43115  1  6  0  0  0
 44 52  1  0  0  0  0
 44 76  1  0  0  0  0
 44116  1  1  0  0  0
 45 53  1  0  0  0  0
 45 77  1  0  0  0  0
 45117  1  6  0  0  0
 46 54  1  0  0  0  0
 46 78  1  0  0  0  0
 46118  1  6  0  0  0
 47 55  1  0  0  0  0
 47 79  1  0  0  0  0
 47119  1  6  0  0  0
 48 56  1  0  0  0  0
 48 80  1  0  0  0  0
 48120  1  6  0  0  0
 49 65  1  0  0  0  0
 49 17  1  0  0  0  0
 49121  1  1  0  0  0
 50 67  1  0  0  0  0
 50 18  1  0  0  0  0
 50122  1  6  0  0  0
 51 66  1  0  0  0  0
 51 19  1  0  0  0  0
 51123  1  1  0  0  0
 52 68  1  0  0  0  0
 52 20  1  0  0  0  0
 52124  1  6  0  0  0
 53 69  1  0  0  0  0
 53 21  1  0  0  0  0
 53125  1  6  0  0  0
 54 70  1  0  0  0  0
 54 22  1  0  0  0  0
 54126  1  1  0  0  0
 55 71  1  0  0  0  0
 55 23  1  0  0  0  0
 55127  1  1  0  0  0
 56 72  1  0  0  0  0
 56 24  1  0  0  0  0
 56128  1  1  0  0  0
 57 65  1  0  0  0  0
 57129  1  1  0  0  0
 58 66  1  0  0  0  0
 58130  1  1  0  0  0
 59 67  1  0  0  0  0
 59131  1  6  0  0  0
 60 69  1  0  0  0  0
 60132  1  6  0  0  0
 61 68  1  0  0  0  0
 61133  1  1  0  0  0
 62 71  1  0  0  0  0
 62134  1  6  0  0  0
 63 70  1  0  0  0  0
 63135  1  6  0  0  0
 64 72  1  0  0  0  0
 64136  1  6  0  0  0
 65 25  1  0  0  0  0
 65137  1  6  0  0  0
 66 26  1  0  0  0  0
 66138  1  6  0  0  0
 67 27  1  0  0  0  0
 67139  1  1  0  0  0
 68 28  1  0  0  0  0
 68140  1  1  0  0  0
 69 29  1  0  0  0  0
 69141  1  1  0  0  0
 70 30  1  0  0  0  0
 70142  1  6  0  0  0
 71 31  1  0  0  0  0
 71143  1  6  0  0  0
 72 32  1  0  0  0  0
 72144  1  6  0  0  0
 73 81  1  0  0  0  0
 73145  1  1  0  0  0
 74 82  1  0  0  0  0
 74146  1  6  0  0  0
 75 83  1  0  0  0  0
 75147  1  6  0  0  0
 76 84  1  0  0  0  0
 76148  1  6  0  0  0
 77 85  1  0  0  0  0
 77149  1  6  0  0  0
 78 86  1  0  0  0  0
 78150  1  1  0  0  0
 79 87  1  0  0  0  0
 79151  1  1  0  0  0
 80 88  1  0  0  0  0
 80152  1  1  0  0  0
 81153  1  0  0  0  0
 81154  1  0  0  0  0
 82155  1  0  0  0  0
 82156  1  0  0  0  0
 83157  1  0  0  0  0
 83158  1  0  0  0  0
 84159  1  0  0  0  0
 84160  1  0  0  0  0
 85161  1  0  0  0  0
 85162  1  0  0  0  0
 86163  1  0  0  0  0
 86164  1  0  0  0  0
 87165  1  0  0  0  0
 87166  1  0  0  0  0
 88167  1  0  0  0  0
 88168  1  0  0  0  0
M  END
>  <PUBCHEM_COMPOUND_CID>
5287407

>  <PUBCHEM_COMPOUND_CANONICALIZED>
1

>  <PUBCHEM_CACTVS_COMPLEXITY>
1720

>  <PUBCHEM_CACTVS_HBOND_ACCEPTOR>
40

>  <PUBCHEM_CACTVS_HBOND_DONOR>
24

>  <PUBCHEM_CACTVS_ROTATABLE_BOND>
8

>  <PUBCHEM_CACTVS_SUBSKEYS>
AAADcfB8PgAAAAAAAAAAAAAAAAAAAAAAAAAkSJEiQAAAAAAAAAAAGgAACAAACBSwgAMACAAABgAAAAAAAAAAAAAAAAAAAAAAAAAREAIAAAAiQAAFAAAHAAHAYAwAAAAAAAAAAAAAAAAAAAAAAAAAAAAAAA==

>  <PUBCHEM_IUPAC_OPENEYE_NAME>
(1S,3R,5R,6S,8R,10R,11S,13R,15R,16S,18R,20R,21S,23R,25R,26S,28R,30R,31S,33R,35R,36S,38R,40R,41R,42R,43R,44R,45R,46R,47R,48R,49R,50R,51R,52R,53R,54R,55R,56R)-5,10,15,20,25,30,35,40-octakis(hydroxymethyl)-2,4,7,9,12,14,17,19,22,24,27,29,32,34,37,39-hexadecaoxanonacyclo[36.2.2.23,6.28,11.213,16.218,21.223,26.228,31.233,36]hexapentacontane-41,42,43,44,45,46,47,48,49,50,51,52,53,54,55,56-hexadecol

>  <PUBCHEM_IUPAC_CAS_NAME>
(1S,3R,5R,6S,8R,10R,11S,13R,15R,16S,18R,20R,21S,23R,25R,26S,28R,30R,31S,33R,35R,36S,38R,40R,41R,42R,43R,44R,45R,46R,47R,48R,49R,50R,51R,52R,53R,54R,55R,56R)-5,10,15,20,25,30,35,40-octakis(hydroxymethyl)-2,4,7,9,12,14,17,19,22,24,27,29,32,34,37,39-hexadecaoxanonacyclo[36.2.2.23,6.28,11.213,16.218,21.223,26.228,31.233,36]hexapentacontane-41,42,43,44,45,46,47,48,49,50,51,52,53,54,55,56-hexadecol

>  <PUBCHEM_IUPAC_NAME_MARKUP>
(1<I>S</I>,3<I>R</I>,5<I>R</I>,6<I>S</I>,8<I>R</I>,10<I>R</I>,11<I>S</I>,13<I>R</I>,15<I>R</I>,16<I>S</I>,18<I>R</I>,20<I>R</I>,21<I>S</I>,23<I>R</I>,25<I>R</I>,26<I>S</I>,28<I>R</I>,30<I>R</I>,31<I>S</I>,33<I>R</I>,35<I>R</I>,36<I>S</I>,38<I>R</I>,40<I>R</I>,41<I>R</I>,42<I>R</I>,43<I>R</I>,44<I>R</I>,45<I>R</I>,46<I>R</I>,47<I>R</I>,48<I>R</I>,49<I>R</I>,50<I>R</I>,51<I>R</I>,52<I>R</I>,53<I>R</I>,54<I>R</I>,55<I>R</I>,56<I>R</I>)-5,10,15,20,25,30,35,40-octakis(hydroxymethyl)-2,4,7,9,12,14,17,19,22,24,27,29,32,34,37,39-hexadecaoxanonacyclo[36.2.2.2<SUP>3,6</SUP>.2<SUP>8,11</SUP>.2<SUP>13,16</SUP>.2<SUP>18,21</SUP>.2<SUP>23,26</SUP>.2<SUP>28,31</SUP>.2<SUP>33,36</SUP>]hexapentacontane-41,42,43,44,45,46,47,48,49,50,51,52,53,54,55,56-hexadecol

>  <PUBCHEM_IUPAC_NAME>
(1S,3R,5R,6S,8R,10R,11S,13R,15R,16S,18R,20R,21S,23R,25R,26S,28R,30R,31S,33R,35R,36S,38R,40R,41R,42R,43R,44R,45R,46R,47R,48R,49R,50R,51R,52R,53R,54R,55R,56R)-5,10,15,20,25,30,35,40-octakis(hydroxymethyl)-2,4,7,9,12,14,17,19,22,24,27,29,32,34,37,39-hexadecaoxanonacyclo[36.2.2.23,6.28,11.213,16.218,21.223,26.228,31.233,36]hexapentacontane-41,42,43,44,45,46,47,48,49,50,51,52,53,54,55,56-hexadecol

>  <PUBCHEM_IUPAC_SYSTEMATIC_NAME>
(1S,3R,5R,6S,8R,10R,11S,13R,15R,16S,18R,20R,21S,23R,25R,26S,28R,30R,31S,33R,35R,36S,38R,40R,41R,42R,43R,44R,45R,46R,47R,48R,49R,50R,51R,52R,53R,54R,55R,56R)-5,10,15,20,25,30,35,40-octakis(hydroxymethyl)-2,4,7,9,12,14,17,19,22,24,27,29,32,34,37,39-hexadecaoxanonacyclo[36.2.2.23,6.28,11.213,16.218,21.223,26.228,31.233,36]hexapentacontane-41,42,43,44,45,46,47,48,49,50,51,52,53,54,55,56-hexadecol

>  <PUBCHEM_IUPAC_TRADITIONAL_NAME>
(1S,3R,5R,6S,8R,10R,11S,13R,15R,16S,18R,20R,21S,23R,25R,26S,28R,30R,31S,33R,35R,36S,38R,40R,41R,42R,43R,44R,45R,46R,47R,48R,49R,50R,51R,52R,53R,54R,55R,56R)-5,10,15,20,25,30,35,40-octamethylol-2,4,7,9,12,14,17,19,22,24,27,29,32,34,37,39-hexadecaoxanonacyclo[36.2.2.23,6.28,11.213,16.218,21.223,26.228,31.233,36]hexapentacontane-41,42,43,44,45,46,47,48,49,50,51,52,53,54,55,56-hexadecol

>  <PUBCHEM_IUPAC_INCHI>
InChI=1S/C48H80O40/c49-1-9-33-17(57)25(65)41(73-9)82-34-10(2-50)75-43(27(67)19(34)59)84-36-12(4-52)77-45(29(69)21(36)61)86-38-14(6-54)79-47(31(71)23(38)63)88-40-16(8-56)80-48(32(72)24(40)64)87-39-15(7-55)78-46(30(70)22(39)62)85-37-13(5-53)76-44(28(68)20(37)60)83-35-11(3-51)74-42(81-33)26(66)18(35)58/h9-72H,1-8H2/t9-,10-,11-,12-,13-,14-,15-,16-,17-,18-,19-,20-,21-,22-,23-,24-,25-,26-,27-,28-,29-,30-,31-,32-,33-,34-,35-,36-,37-,38-,39-,40-,41-,42-,43-,44-,45-,46-,47-,48-/m1/s1

>  <PUBCHEM_IUPAC_INCHIKEY>
GDSRMADSINPKSL-HSEONFRVSA-N

>  <PUBCHEM_XLOGP3_AA>
-17.2

>  <PUBCHEM_EXACT_MASS>
1296.422587

>  <PUBCHEM_MOLECULAR_FORMULA>
C48H80O40

>  <PUBCHEM_MOLECULAR_WEIGHT>
1297.1

>  <PUBCHEM_OPENEYE_CAN_SMILES>
C(C1C2C(C(C(O1)OC3C(OC(C(C3O)O)OC4C(OC(C(C4O)O)OC5C(OC(C(C5O)O)OC6C(OC(C(C6O)O)OC7C(OC(C(C7O)O)OC8C(OC(C(C8O)O)OC9C(OC(O2)C(C9O)O)CO)CO)CO)CO)CO)CO)CO)O)O)O

>  <PUBCHEM_OPENEYE_ISO_SMILES>
C([C@@H]1[C@@H]2[C@@H]([C@H]([C@H](O1)O[C@@H]3[C@H](O[C@@H]([C@@H]([C@H]3O)O)O[C@@H]4[C@H](O[C@@H]([C@@H]([C@H]4O)O)O[C@@H]5[C@H](O[C@@H]([C@@H]([C@H]5O)O)O[C@@H]6[C@H](O[C@@H]([C@@H]([C@H]6O)O)O[C@@H]7[C@H](O[C@@H]([C@@H]([C@H]7O)O)O[C@@H]8[C@H](O[C@@H]([C@@H]([C@H]8O)O)O[C@@H]9[C@H](O[C@H](O2)[C@@H]([C@H]9O)O)CO)CO)CO)CO)CO)CO)CO)O)O)O

>  <PUBCHEM_CACTVS_TPSA>
633

>  <PUBCHEM_MONOISOTOPIC_WEIGHT>
1296.422587

>  <PUBCHEM_TOTAL_CHARGE>
0

>  <PUBCHEM_HEAVY_ATOM_COUNT>
88

>  <PUBCHEM_ATOM_DEF_STEREO_COUNT>
40

>  <PUBCHEM_ATOM_UDEF_STEREO_COUNT>
0

>  <PUBCHEM_BOND_DEF_STEREO_COUNT>
0

>  <PUBCHEM_BOND_UDEF_STEREO_COUNT>
0

>  <PUBCHEM_ISOTOPIC_ATOM_COUNT>
0

>  <PUBCHEM_COMPONENT_COUNT>
1

>  <PUBCHEM_CACTVS_TAUTO_COUNT>
-1

>  <PUBCHEM_COORDINATE_TYPE>
1
5
255

>  <PUBCHEM_BONDANNOTATIONS>
49  17  5
50  18  6
51  19  5
52  20  5
53  21  6
54  22  6
55  23  6
56  24  6
65  25  6
66  26  6
67  27  5
68  28  6
69  29  5
70  30  5
71  31  5
72  32  5
41  89  5
42  90  6
43  91  5
44  92  5
45  93  6
46  94  6
47  95  6
48  96  6
57  105  5
58  106  5
59  107  6
60  108  6
61  109  5
62  110  6
63  111  6
64  112  6
73  81  5
74  82  6
75  83  5
76  84  5
77  85  6
78  86  6
79  87  6
80  88  6

$$$$
