644019
 OpenBabel03092011253D

 53 54  0  0  1  0  0  0  0  0999 V2000
   -3.1514   -0.3889    4.4680 O   0  0  0  0  0  0  0  0  0  0  0  0
    1.0221   -2.7638    4.0694 O   0  0  0  0  0  0  0  0  0  0  0  0
   -0.9795   -2.7451    1.7566 C   0  0  1  0  0  0  0  0  0  0  0  0
   -1.0188   -1.4083    2.5921 C   0  0  1  0  0  0  0  0  0  0  0  0
   -2.3817   -3.3841    1.7737 C   0  0  0  0  0  0  0  0  0  0  0  0
   -3.4758   -2.4598    1.2292 C   0  0  0  0  0  0  0  0  0  0  0  0
   -2.1264   -0.5208    2.0551 C   0  0  0  0  0  0  0  0  0  0  0  0
   -1.0903   -1.6270    4.1298 C   0  0  0  0  0  0  0  0  0  0  0  0
   -3.2414   -0.9880    1.4568 C   0  0  0  0  0  0  0  0  0  0  0  0
   -0.4205   -2.6626    0.3129 C   0  0  0  0  0  0  0  0  0  0  0  0
   -2.1230   -1.1449    4.9627 C   0  0  0  0  0  0  0  0  0  0  0  0
   -0.0615   -2.3316    4.7890 C   0  0  0  0  0  0  0  0  0  0  0  0
   -4.3359   -0.0701    1.0043 C   0  0  0  0  0  0  0  0  0  0  0  0
    0.2124   -3.9332   -0.2021 C   0  0  0  0  0  0  0  0  0  0  0  0
   -1.1400   -2.1254    6.9619 C   0  0  0  0  0  0  0  0  0  0  0  0
   -2.1481   -1.3885    6.3436 C   0  0  0  0  0  0  0  0  0  0  0  0
   -0.0867   -2.5897    6.1714 C   0  0  0  0  0  0  0  0  0  0  0  0
   -1.1918   -2.3590    8.4518 C   0  0  0  0  0  0  0  0  0  0  0  0
   -0.4318   -1.5775   -0.4833 C   0  0  0  0  0  0  0  0  0  0  0  0
   -1.2992   -3.8277    8.8743 C   0  0  0  0  0  0  0  0  0  0  0  0
   -2.5204   -4.5858    8.3385 C   0  0  0  0  0  0  0  0  0  0  0  0
   -3.8888   -4.0146    8.7181 C   0  0  0  0  0  0  0  0  0  0  0  0
   -4.1423   -3.9792   10.2168 C   0  0  0  0  0  0  0  0  0  0  0  0
   -3.8029   -0.2161    5.1624 H   0  0  0  0  0  0  0  0  0  0  0  0
    1.6080   -3.2734    4.6525 H   0  0  0  0  0  0  0  0  0  0  0  0
   -0.3148   -3.4495    2.2678 H   0  0  0  0  0  0  0  0  0  0  0  0
   -0.0748   -0.8727    2.4121 H   0  0  0  0  0  0  0  0  0  0  0  0
   -2.6316   -3.6571    2.8080 H   0  0  0  0  0  0  0  0  0  0  0  0
   -2.3924   -4.3275    1.2141 H   0  0  0  0  0  0  0  0  0  0  0  0
   -4.4295   -2.7516    1.6864 H   0  0  0  0  0  0  0  0  0  0  0  0
   -3.5773   -2.6316    0.1510 H   0  0  0  0  0  0  0  0  0  0  0  0
   -1.9995    0.5457    2.2180 H   0  0  0  0  0  0  0  0  0  0  0  0
   -5.2429   -0.2507    1.5901 H   0  0  0  0  0  0  0  0  0  0  0  0
   -4.5630   -0.2390   -0.0528 H   0  0  0  0  0  0  0  0  0  0  0  0
   -4.0643    0.9838    1.1231 H   0  0  0  0  0  0  0  0  0  0  0  0
    0.5364   -3.8407   -1.2449 H   0  0  0  0  0  0  0  0  0  0  0  0
   -0.4923   -4.7681   -0.1536 H   0  0  0  0  0  0  0  0  0  0  0  0
    1.0955   -4.1818    0.3955 H   0  0  0  0  0  0  0  0  0  0  0  0
   -2.9596   -0.9913    6.9478 H   0  0  0  0  0  0  0  0  0  0  0  0
    0.7229   -3.1416    6.6409 H   0  0  0  0  0  0  0  0  0  0  0  0
   -2.0230   -1.7955    8.8933 H   0  0  0  0  0  0  0  0  0  0  0  0
   -0.2848   -1.9258    8.8917 H   0  0  0  0  0  0  0  0  0  0  0  0
   -0.0200   -1.6073   -1.4885 H   0  0  0  0  0  0  0  0  0  0  0  0
   -0.8631   -0.6296   -0.1862 H   0  0  0  0  0  0  0  0  0  0  0  0
   -1.2982   -3.8724    9.9701 H   0  0  0  0  0  0  0  0  0  0  0  0
   -0.3979   -4.3640    8.5530 H   0  0  0  0  0  0  0  0  0  0  0  0
   -2.4617   -5.6208    8.6994 H   0  0  0  0  0  0  0  0  0  0  0  0
   -2.4595   -4.6454    7.2452 H   0  0  0  0  0  0  0  0  0  0  0  0
   -4.6597   -4.6410    8.2527 H   0  0  0  0  0  0  0  0  0  0  0  0
   -4.0169   -3.0101    8.3026 H   0  0  0  0  0  0  0  0  0  0  0  0
   -3.9794   -4.9631   10.6681 H   0  0  0  0  0  0  0  0  0  0  0  0
   -5.1783   -3.6849   10.4149 H   0  0  0  0  0  0  0  0  0  0  0  0
   -3.4909   -3.2556   10.7154 H   0  0  0  0  0  0  0  0  0  0  0  0
  1 11  1  0  0  0  0
  1 24  1  0  0  0  0
  2 12  1  0  0  0  0
  2 25  1  0  0  0  0
  3  5  1  0  0  0  0
  3  4  1  0  0  0  0
  3 10  1  0  0  0  0
  3 26  1  6  0  0  0
  4  7  1  0  0  0  0
  4  8  1  0  0  0  0
  4 27  1  1  0  0  0
  5  6  1  0  0  0  0
  5 28  1  0  0  0  0
  5 29  1  0  0  0  0
  6  9  1  0  0  0  0
  6 30  1  0  0  0  0
  6 31  1  0  0  0  0
  7  9  2  0  0  0  0
  7 32  1  0  0  0  0
  8 11  2  0  0  0  0
  8 12  1  0  0  0  0
  9 13  1  0  0  0  0
 10 19  2  0  0  0  0
 10 14  1  0  0  0  0
 11 16  1  0  0  0  0
 12 17  2  0  0  0  0
 13 33  1  0  0  0  0
 13 34  1  0  0  0  0
 13 35  1  0  0  0  0
 14 36  1  0  0  0  0
 14 37  1  0  0  0  0
 14 38  1  0  0  0  0
 15 16  2  0  0  0  0
 15 17  1  0  0  0  0
 15 18  1  0  0  0  0
 16 39  1  0  0  0  0
 17 40  1  0  0  0  0
 18 20  1  0  0  0  0
 18 41  1  0  0  0  0
 18 42  1  0  0  0  0
 19 43  1  0  0  0  0
 19 44  1  0  0  0  0
 20 21  1  0  0  0  0
 20 45  1  0  0  0  0
 20 46  1  0  0  0  0
 21 22  1  0  0  0  0
 21 47  1  0  0  0  0
 21 48  1  0  0  0  0
 22 23  1  0  0  0  0
 22 49  1  0  0  0  0
 22 50  1  0  0  0  0
 23 51  1  0  0  0  0
 23 52  1  0  0  0  0
 23 53  1  0  0  0  0
M  END
>  <PUBCHEM_COMPOUND_CID>
644019

>  <PUBCHEM_COMPOUND_CANONICALIZED>
1

>  <PUBCHEM_CACTVS_COMPLEXITY>
414

>  <PUBCHEM_CACTVS_HBOND_ACCEPTOR>
2

>  <PUBCHEM_CACTVS_HBOND_DONOR>
2

>  <PUBCHEM_CACTVS_ROTATABLE_BOND>
6

>  <PUBCHEM_CACTVS_SUBSKEYS>
AAADceB4MAAAAAAAAAAAAAAAAAAAAAAAAAAwQAAAAAAAAAABAAAAGgAACAAADQSAmAAyBoAAAgCAAiBCAAACAAAgIAAAiAAGCIgIJyKCERKAcAAlwBUImAeA4PQOwAABCAAIAACAAAIQABAAAAAAAAAAAA==

>  <PUBCHEM_IUPAC_OPENEYE_NAME>
2-[(1R,6R)-6-isopropenyl-3-methyl-cyclohex-2-en-1-yl]-5-pentyl-benzene-1,3-diol

>  <PUBCHEM_IUPAC_CAS_NAME>
2-[(1R,6R)-3-methyl-6-(1-methylethenyl)-1-cyclohex-2-enyl]-5-pentylbenzene-1,3-diol

>  <PUBCHEM_IUPAC_NAME_MARKUP>
2-[(1<I>R</I>,6<I>R</I>)-3-methyl-6-prop-1-en-2-ylcyclohex-2-en-1-yl]-5-pentylbenzene-1,3-diol

>  <PUBCHEM_IUPAC_NAME>
2-[(1R,6R)-3-methyl-6-prop-1-en-2-ylcyclohex-2-en-1-yl]-5-pentylbenzene-1,3-diol

>  <PUBCHEM_IUPAC_SYSTEMATIC_NAME>
2-[(1R,6R)-3-methyl-6-prop-1-en-2-yl-cyclohex-2-en-1-yl]-5-pentyl-benzene-1,3-diol

>  <PUBCHEM_IUPAC_TRADITIONAL_NAME>
5-amyl-2-[(1R,6R)-6-isopropenyl-3-methyl-cyclohex-2-en-1-yl]resorcinol

>  <PUBCHEM_IUPAC_INCHI>
InChI=1S/C21H30O2/c1-5-6-7-8-16-12-19(22)21(20(23)13-16)18-11-15(4)9-10-17(18)14(2)3/h11-13,17-18,22-23H,2,5-10H2,1,3-4H3/t17-,18+/m0/s1

>  <PUBCHEM_IUPAC_INCHIKEY>
QHMBSVQNZZTUGM-ZWKOTPCHSA-N

>  <PUBCHEM_XLOGP3_AA>
6.5

>  <PUBCHEM_EXACT_MASS>
314.22458

>  <PUBCHEM_MOLECULAR_FORMULA>
C21H30O2

>  <PUBCHEM_MOLECULAR_WEIGHT>
314.5

>  <PUBCHEM_OPENEYE_CAN_SMILES>
CCCCCC1=CC(=C(C(=C1)O)C2C=C(CCC2C(=C)C)C)O

>  <PUBCHEM_OPENEYE_ISO_SMILES>
CCCCCC1=CC(=C(C(=C1)O)[C@@H]2C=C(CC[C@H]2C(=C)C)C)O

>  <PUBCHEM_CACTVS_TPSA>
40.5

>  <PUBCHEM_MONOISOTOPIC_WEIGHT>
314.22458

>  <PUBCHEM_TOTAL_CHARGE>
0

>  <PUBCHEM_HEAVY_ATOM_COUNT>
23

>  <PUBCHEM_ATOM_DEF_STEREO_COUNT>
2

>  <PUBCHEM_ATOM_UDEF_STEREO_COUNT>
0

>  <PUBCHEM_BOND_DEF_STEREO_COUNT>
0

>  <PUBCHEM_BOND_UDEF_STEREO_COUNT>
0

>  <PUBCHEM_ISOTOPIC_ATOM_COUNT>
0

>  <PUBCHEM_COMPONENT_COUNT>
1

>  <PUBCHEM_CACTVS_TAUTO_COUNT>
-1

>  <PUBCHEM_COORDINATE_TYPE>
1
5
255

>  <PUBCHEM_BONDANNOTATIONS>
11  16  8
12  17  8
15  16  8
15  17  8
3  10  5
4  25  5
8  11  8
8  12  8

$$$$
